5
Lattice="3.2 0.0 0.0 -1.6 2.7712812921102037 0.0 0.0 0.0 20.0" Properties=species:S:1:pos:R:3 pbc="T T T"
Ti      -0.00000000       1.84752086       8.00000000
Ti       1.60000000       0.92376043       9.00000000
C        0.00000000       0.00000000      10.00000000
F        1.60000000       0.92376043      10.20000000
F       -0.00000000       1.84752086       6.80000000
